@<TRIPOS>MOLECULE
LIG
   69    73     1     0     0
SMALL
bcc


@<TRIPOS>ATOM
      1 C1          5.0590    9.6520    6.2810 ca        1 LIG     -0.252300
      2 C2          5.8220    9.8630    5.1240 ca        1 LIG     -0.071000
      3 C3          5.3510   10.7750    4.1610 cp        1 LIG     -0.280800
      4 C4          4.1220   11.4180    4.4220 ca        1 LIG      0.439200
      5 N1          3.3840   11.2230    5.5300 nb        1 LIG     -0.667000
      6 C5          3.8520   10.3540    6.4380 ca        1 LIG      0.411200
      7 C6          6.1020   11.0530    2.9070 cp        1 LIG      0.542800
      8 C7          7.4480   11.0550    2.9100 ca        1 LIG     -0.407600
      9 C8          8.0700   11.3110    1.7360 ca        1 LIG      0.460200
     10 N2          7.3730   11.5580    0.5850 nb        1 LIG     -0.733000
     11 C9          6.0350   11.5490    0.6280 ca        1 LIG      0.875900
     12 N3          5.3950   11.3030    1.7740 nb        1 LIG     -0.744000
     13 N4          5.2490   11.7940   -0.5340 nh        1 LIG     -0.713300
     14 C10         5.9600   12.1020   -1.6960 ca        1 LIG      0.160600
     15 C11         6.3360   13.4330   -1.9620 ca        1 LIG     -0.123300
     16 C12         7.0350   13.7180   -3.1460 ca        1 LIG     -0.092000
     17 C13         7.3610   12.6970   -4.0520 ca        1 LIG     -0.186000
     18 C14         7.0090   11.3560   -3.8030 ca        1 LIG      0.059600
     19 C15         6.2900   11.0830   -2.6130 ca        1 LIG     -0.121000
     20 N5          7.3900   10.4200   -4.7910 n         1 LIG     -0.464100
     21 C16         7.3660    9.0800   -4.5970 c         1 LIG      0.670700
     22 C17         7.6570    8.1930   -5.7610 ca        1 LIG     -0.122600
     23 C18         8.0220    6.8460   -5.5570 ca        1 LIG     -0.091000
     24 C19         8.2940    5.9920   -6.6420 ca        1 LIG     -0.123000
     25 C20         8.2070    6.4610   -7.9660 ca        1 LIG     -0.105300
     26 C21         7.8410    7.8040   -8.1780 ca        1 LIG     -0.123000
     27 C22         7.5690    8.6580   -7.0930 ca        1 LIG     -0.091000
     28 C23         8.4890    5.5410   -9.1430 c3        1 LIG      0.219100
     29 N6          9.8930    5.7480   -9.6920 n3        1 LIG     -0.740600
     30 C24        10.9390    5.3440   -8.7240 c3        1 LIG      0.143800
     31 C25        12.3540    5.4640   -9.3110 c3        1 LIG      0.107300
     32 N7         12.5050    4.6940  -10.5630 n4        1 LIG     -0.683400
     33 C26        13.8590    4.8630  -11.1280 c3        1 LIG      0.084100
     34 C27        11.4710    5.1110  -11.5320 c3        1 LIG      0.107300
     35 C28        10.0560    4.9830  -10.9490 c3        1 LIG      0.143800
     36 O1          7.1590    8.5390   -3.5070 o         1 LIG     -0.562100
     37 C29         5.9860   14.5420   -0.9900 c3        1 LIG     -0.058800
     38 H38         5.3900    8.9570    7.0420 ha        1 LIG      0.148000
     39 H39         6.7450    9.3180    4.9840 ha        1 LIG      0.142000
     40 H40         3.7510   12.1190    3.6840 h4        1 LIG      0.038100
     41 H41         3.2770   10.1770    7.3390 h4        1 LIG      0.028100
     42 H42         8.0270   10.8760    3.8050 ha        1 LIG      0.157000
     43 H43         9.1510   11.3190    1.7110 h4        1 LIG      0.025100
     44 H44         4.2390   11.8030   -0.5000 hn        1 LIG      0.446800
     45 H45         7.3300   14.7340   -3.3700 ha        1 LIG      0.138000
     46 H46         7.9010   12.9600   -4.9530 ha        1 LIG      0.126000
     47 H47         5.9410   10.0940   -2.3630 ha        1 LIG      0.188000
     48 H48         7.7540   10.7510   -5.6720 hn        1 LIG      0.313500
     49 H49         8.0960    6.4570   -4.5500 ha        1 LIG      0.158500
     50 H50         8.5670    4.9630   -6.4490 ha        1 LIG      0.141000
     51 H51         7.7570    8.1880   -9.1860 ha        1 LIG      0.141000
     52 H52         7.2740    9.6760   -7.3030 ha        1 LIG      0.158500
     53 H53         8.3490    4.5020   -8.8390 h1        1 LIG      0.060200
     54 H54         7.7570    5.7610   -9.9220 h1        1 LIG      0.060200
     55 H56        10.7740    4.3110   -8.4110 h1        1 LIG      0.078200
     56 H57        10.8910    5.9800   -7.8380 h1        1 LIG      0.078200
     57 H58        12.5700    6.5190   -9.4960 hx        1 LIG      0.108950
     58 H59        13.0690    5.0970   -8.5710 hx        1 LIG      0.108950
     59 H60        12.3860    3.7140  -10.3600 hn        1 LIG      0.445800
     60 H61        14.6090    4.5240  -10.4110 hx        1 LIG      0.105700
     61 H62        13.9620    4.2660  -12.0360 hx        1 LIG      0.105700
     62 H63        14.0540    5.9090  -11.3730 hx        1 LIG      0.105700
     63 H64        11.5370    4.4860  -12.4250 hx        1 LIG      0.108950
     64 H65        11.6380    6.1490  -11.8300 hx        1 LIG      0.108950
     65 H66         9.3440    5.3480  -11.6910 h1        1 LIG      0.078200
     66 H67         9.8450    3.9270  -10.7670 h1        1 LIG      0.078200
     67 H68         4.9180   14.5200   -0.7740 hc        1 LIG      0.049033
     68 H69         6.5440   14.4020   -0.0640 hc        1 LIG      0.049033
     69 H70         6.2380   15.5170   -1.4090 hc        1 LIG      0.049033
@<TRIPOS>BOND
     1    1    2 ar  
     2    1    6 ar  
     3    1   38 1   
     4    2    3 ar  
     5    2   39 1   
     6    3    4 ar  
     7    3    7 1   
     8    4    5 ar  
     9    4   40 1   
    10    5    6 ar  
    11    6   41 1   
    12    7    8 ar  
    13    7   12 ar  
    14    8    9 ar  
    15    8   42 1   
    16    9   10 ar  
    17    9   43 1   
    18   10   11 ar  
    19   11   12 ar  
    20   11   13 1   
    21   13   14 1   
    22   13   44 1   
    23   14   15 ar  
    24   14   19 ar  
    25   15   16 ar  
    26   15   37 1   
    27   16   17 ar  
    28   16   45 1   
    29   17   18 ar  
    30   17   46 1   
    31   18   19 ar  
    32   18   20 1   
    33   19   47 1   
    34   20   21 1   
    35   20   48 1   
    36   21   22 1   
    37   21   36 2   
    38   22   23 ar  
    39   22   27 ar  
    40   23   24 ar  
    41   23   49 1   
    42   24   25 ar  
    43   24   50 1   
    44   25   26 ar  
    45   25   28 1   
    46   26   27 ar  
    47   26   51 1   
    48   27   52 1   
    49   28   29 1   
    50   28   53 1   
    51   28   54 1   
    52   29   30 1   
    53   29   35 1   
    54   30   31 1   
    55   30   55 1   
    56   30   56 1   
    57   31   32 1   
    58   31   57 1   
    59   31   58 1   
    60   32   33 1   
    61   32   34 1   
    62   32   59 1   
    63   33   60 1   
    64   33   61 1   
    65   33   62 1   
    66   34   35 1   
    67   34   63 1   
    68   34   64 1   
    69   35   65 1   
    70   35   66 1   
    71   37   67 1   
    72   37   68 1   
    73   37   69 1   
@<TRIPOS>SUBSTRUCTURE
     1 LIG         1 TEMP              0 ****  ****    0 ROOT
